[General]
network = Network
sim-time-limit = 200s




Network.nodeTx.gen.generationInterval = exponential(0.2)   
Network.nodeTx.gen.packetByteSize = 12500    


Network.nodeTx.traTx.bufferSize = 2000000
Network.nodeTx.traTx.waitTime = 1  

Network.nodeRx.traRx.bufferSize = 200 



Network.queue0.serviceTime = exponential(0.1)
Network.queue0.bufferSize = 200  


Network.queue1.serviceTime = exponential(0.1)
Network.queue1.bufferSize = 200  